<DOMSymbolItem xmlns:xsi="http://www.w3.org/2001/XMLSchema-instance" xmlns="http://ns.adobe.com/xfl/2008/" name="Login/Profile/Crew/Divider Stuff/btn_add" itemID="55d1f880-000002a6" linkageExportForAS="true" linkageClassName="assets_profileaddbtn" lastModified="1439824141">
  <timeline>
    <DOMTimeline name="btn_add">
      <layers>
        <DOMLayer name="Layer 1" color="#4F80FF" current="true" isSelected="true">
          <frames>
            <DOMFrame index="0" keyMode="9728">
              <elements>
                <DOMShape>
                  <fills>
                    <FillStyle index="1">
                      <SolidColor color="#7A7A7A"/>
                    </FillStyle>
                    <FillStyle index="2">
                      <LinearGradient>
                        <matrix>
                          <Matrix a="0" b="-0.015869140625" c="0.06060791015625" d="0" tx="50" ty="4"/>
                        </matrix>
                        <GradientEntry color="#07548A" ratio="0"/>
                        <GradientEntry color="#5AAFEF" ratio="1"/>
                      </LinearGradient>
                    </FillStyle>
                  </fills>
                  <edges>
                    <Edge fillStyle0="1" fillStyle1="2" edges="!1962 585|38 585!38 585[7 585 7 518!7 518|7 83!7 83[7 15 38 15!38 15|1962 15!1962 15[1993 15 1993 83!1993 83|1993 518!1993 518[1993 585 1962 585"/>
                    <Edge fillStyle0="1" edges="!2000 83[2000 0 1962 0!1962 0|38 0!38 0[0 0 0 83!0 83|0 518!0 518[0 600 38 600!38 600|1962 600!1962 600[2000 600 2000 518!2000 518|2000 83"/>
                  </edges>
                </DOMShape>
                <DOMStaticText width="96" height="18.75" isSelectable="false">
                  <matrix>
                    <Matrix tx="2" ty="6"/>
                  </matrix>
                  <textRuns>
                    <DOMTextRun>
                      <characters>Add</characters>
                      <textAttrs>
                        <DOMTextAttrs alignment="center" aliasText="false" lineHeight="18.75" size="15" bitmapSize="300" face="system*" fillColor="#FFFFFF"/>
                      </textAttrs>
                    </DOMTextRun>
                  </textRuns>
                  <filters>
                    <DropShadowFilter angle="120" blurX="1" blurY="1" distance="1"/>
                  </filters>
                </DOMStaticText>
              </elements>
            </DOMFrame>
          </frames>
        </DOMLayer>
      </layers>
    </DOMTimeline>
  </timeline>
</DOMSymbolItem>